LTspice 26.0.1 for Windows
Circuit: D:\savonia\Analog Electronics\assignments\3.2 Diode Application\Draft1.net
Start Time: Sat Jan 31 10:11:45 2026
solver = Normal
Maximum thread count: 20
tnom = 27
temp = 27
method = trap
.OP point found by inspection.
.OP point found by inspection.
Total elapsed time: 0.050 seconds.

Files loaded:
D:\savonia\Analog Electronics\assignments\3.2 Diode Application\Draft1.net
C:\Users\fngn\AppData\Local\LTspice\lib\cmp\standard.dio

